MODULE_CONTAINER = SOLID
MODULE = STATIC
METHOD = NONE
POSTPROCESSOR = TECPLOT
SOLVER_TYPE = STATIC
MATERIAL_TYPE = LINEAR_ELASTIC
ELEMENT_TYPE = T3
MESH_FILENAME = .\my_case\H8.su2
OUTPUT_FILENAME = new.txt
