MODULE_CONTAINER = SOLID
MODULE = STATIC
METHOD = NONE
POSTPROCESSOR = TECPLOT
SOLVER_TYPE = STATIC
MATERIAL_TYPE = LINEAR_ELASTIC
MAT_PARA = (1.0,1.0,1.0,1.0)
ELEMENT_TYPE = T3
MESH_FILENAME = .\my_case\H8.su2
MARKER_DISPLACEMENT = (ubcxy,1.0,1.0,1.0,1.0,1.0,1.0,ubcxy,1.0,1.0,1.0,1.0,1.0,1.0,ubcxy,1.0,1.0,1.0,1.0,1.0,1.0)
MARKER_PRESSURE = (pbc,100.0)
OUTPUT_FILENAME = .\result\output_H8
